@<TRIPOS>MOLECULE
 Molden generated mol2
   131    137      1
 SMALL
 NO_CHARGES
 ****
 ****
@<TRIPOS>ATOM
     1  C    17.2462    -5.7148     0.2212  C.2   1 RES1    0.0000
     2  C    18.2170    -4.9969     0.8949  C.2   1 RES1    0.0000
     3  C    17.8600    -3.9274     1.6957  C.2   1 RES1    0.0000
     4  C    16.5314    -3.5722     1.8250  C.2   1 RES1    0.0000
     5  C    15.5532    -4.2903     1.1498  C.2   1 RES1    0.0000
     6  C    15.9149    -5.3649     0.3460  C.2   1 RES1    0.0000
     7  N    14.2068    -3.9328     1.2782  N.am  1 RES1    0.0000
     8  C    13.7107    -2.9058     0.5599  C.2   1 RES1    0.0000
     9  C    12.3372    -2.4554     0.7807  C.2   1 RES1    0.0000
    10  S    11.4493    -1.3038    -0.2142  S.3   1 RES1    0.0000
    11  C    10.0841    -1.4590     0.8024  C.2   1 RES1    0.0000
    12  N    10.3271    -2.2983     1.7676  N.2   1 RES1    0.0000
    13  C    11.5101    -2.8572     1.7929  C.2   1 RES1    0.0000
    14  N     8.8904    -0.7881     0.6248  N.pl3 1 RES1    0.0000
    15  C     8.8297     0.3076    -0.2263  C.2   1 RES1    0.0000
    16  C     7.6130     0.9253    -0.4956  C.2   1 RES1    0.0000
    17  C     7.6062     2.0236    -1.3510  C.2   1 RES1    0.0000
    18  N     8.7565     2.4401    -1.8767  N.2   1 RES1    0.0000
    19  C     9.8890     1.8275    -1.5967  C.2   1 RES1    0.0000
    20  N     9.9365     0.7855    -0.7923  N.2   1 RES1    0.0000
    21  N     6.4194     2.6738    -1.6513  N.3   1 RES1    0.0000
    22  C     6.6523     3.7981    -2.5687  C.3   1 RES1    0.0000
    23  C     5.3120     4.4383    -2.9374  C.3   1 RES1    0.0000
    24  N     4.6357     4.8919    -1.7140  N.3   1 RES1    0.0000
    25  C     4.4028     3.7677    -0.7967  C.3   1 RES1    0.0000
    26  C     5.7432     3.1275    -0.4280  C.3   1 RES1    0.0000
    27 CL    14.6963    -6.2657    -0.5009 CL     1 RES1    0.0000
    28  C    16.1440    -2.4060     2.6972  C.3   1 RES1    0.0000
    29  O    14.4064    -2.3532    -0.2727  O.2   1 RES1    0.0000
    30  C     3.3780     5.5809    -2.0324  C.3   1 RES1    0.0000
    31  C     2.5853     5.8161    -0.7450  C.3   1 RES1    0.0000
    32  C     1.2754     6.5337    -1.0766  C.3   1 RES1    0.0000
    33  C     0.4827     6.7688     0.2108  C.3   1 RES1    0.0000
    34  C    -0.8273     7.4865    -0.1208  C.3   1 RES1    0.0000
    35  C    -1.6199     7.7217     1.1666  C.3   1 RES1    0.0000
    36  O    -2.8435     8.3919     0.8569  O.3   1 RES1    0.0000
    37  C    -3.6632     8.6608     1.9961  C.3   1 RES1    0.0000
    38  C    -4.9393     9.3765     1.5485  C.3   1 RES1    0.0000
    39  O    -5.7123     8.5015     0.7245  O.3   1 RES1    0.0000
    40  C    -6.9318     9.0759     0.2505  C.3   1 RES1    0.0000
    41  C    -7.6731     8.0558    -0.6160  C.3   1 RES1    0.0000
    42  O    -8.0672     6.9434     0.1896  O.3   1 RES1    0.0000
    43  C    -8.7710     5.9271    -0.5271  C.3   1 RES1    0.0000
    44  C    -9.1415     4.7919     0.4295  C.3   1 RES1    0.0000
    45  C    -9.8951     3.7038    -0.3378  C.3   1 RES1    0.0000
    46  C   -10.2656     2.5686     0.6187  C.3   1 RES1    0.0000
    47  C   -11.0191     1.4804    -0.1487  C.3   1 RES1    0.0000
    48  C   -11.3840     0.3623     0.7936  C.2   1 RES1    0.0000
    49  N   -12.0569    -0.7120     0.3360  N.am  1 RES1    0.0000
    50  O   -11.0720     0.4293     1.9635  O.2   1 RES1    0.0000
    51  C   -12.4789    -1.6982     1.2224  C.2   1 RES1    0.0000
    52  C   -13.3265    -3.6653     3.0117  C.2   1 RES1    0.0000
    53  C   -13.2633    -2.3358     3.4070  C.2   1 RES1    0.0000
    54  C   -12.8454    -1.3611     2.5263  C.2   1 RES1    0.0000
    55  C   -12.9732    -4.0192     1.7211  C.2   1 RES1    0.0000
    56  C   -12.5439    -3.0278     0.8132  C.2   1 RES1    0.0000
    57  C   -12.2508    -3.7332    -0.4471  C.2   1 RES1    0.0000
    58  N   -12.4961    -5.0444    -0.2734  N.am  1 RES1    0.0000
    59  C   -12.9252    -5.2951     0.9768  C.2   1 RES1    0.0000
    60  C   -12.3201    -6.0650    -1.3096  C.3   1 RES1    0.0000
    61  C   -13.5392    -6.9477    -1.3587  C.2   1 RES1    0.0000
    62  N   -13.4503    -8.2390    -1.7107  N.am  1 RES1    0.0000
    63  C   -12.2848    -8.8234    -2.0263  C.2   1 RES1    0.0000
    64  C   -10.9934    -8.0488    -2.0145  C.3   1 RES1    0.0000
    65  C   -11.0921    -6.9212    -0.9818  C.3   1 RES1    0.0000
    66  O   -11.8537    -3.2165    -1.4725  O.2   1 RES1    0.0000
    67  O   -13.2224    -6.3864     1.4195  O.2   1 RES1    0.0000
    68  O   -12.2708    -9.9977    -2.3265  O.2   1 RES1    0.0000
    69  O   -14.6219    -6.4820    -1.0754  O.2   1 RES1    0.0000
    70  C    11.1668     2.3334    -2.2150  C.3   1 RES1    0.0000
    71  H    17.5288    -6.5468    -0.4067  H     1 RES1    0.0000
    72  H    19.2567    -5.2722     0.7958  H     1 RES1    0.0000
    73  H    18.6209    -3.3693     2.2210  H     1 RES1    0.0000
    74  H    13.6302    -4.4240     1.8842  H     1 RES1    0.0000
    75  H    11.8096    -3.5661     2.5506  H     1 RES1    0.0000
    76  H     8.0943    -1.0819     1.0946  H     1 RES1    0.0000
    77  H     6.6973     0.5621    -0.0529  H     1 RES1    0.0000
    78  H     7.2875     4.5385    -2.0826  H     1 RES1    0.0000
    79  H     7.1425     3.4348    -3.4719  H     1 RES1    0.0000
    80  H     5.4846     5.2904    -3.5948  H     1 RES1    0.0000
    81  H     4.6871     3.7054    -3.4479  H     1 RES1    0.0000
    82  H     3.9126     4.1309     0.1066  H     1 RES1    0.0000
    83  H     3.7676     3.0272    -1.2830  H     1 RES1    0.0000
    84  H     5.5706     2.2753     0.2294  H     1 RES1    0.0000
    85  H     6.3681     3.8603     0.0825  H     1 RES1    0.0000
    86  H    15.9592    -2.7572     3.7123  H     1 RES1    0.0000
    87  H    16.9528    -1.6752     2.7071  H     1 RES1    0.0000
    88  H    15.2400    -1.9419     2.3029  H     1 RES1    0.0000
    89  H     3.5976     6.5388    -2.5039  H     1 RES1    0.0000
    90  H     2.7897     4.9667    -2.7142  H     1 RES1    0.0000
    91  H     2.3656     4.8582    -0.2736  H     1 RES1    0.0000
    92  H     3.1736     6.4302    -0.0632  H     1 RES1    0.0000
    93  H     1.4950     7.4915    -1.5481  H     1 RES1    0.0000
    94  H     0.6871     5.9195    -1.7584  H     1 RES1    0.0000
    95  H     0.2630     5.8110     0.6823  H     1 RES1    0.0000
    96  H     1.0709     7.3831     0.8926  H     1 RES1    0.0000
    97  H    -0.6075     8.4444    -0.5922  H     1 RES1    0.0000
    98  H    -1.4155     6.8724    -0.8026  H     1 RES1    0.0000
    99  H    -1.8396     6.7637     1.6381  H     1 RES1    0.0000
   100  H    -1.0317     8.3358     1.8485  H     1 RES1    0.0000
   101  H    -3.9253     7.7225     2.4848  H     1 RES1    0.0000
   102  H    -3.1173     9.2945     2.6951  H     1 RES1    0.0000
   103  H    -5.5227     9.6607     2.4243  H     1 RES1    0.0000
   104  H    -4.6754    10.2698     0.9823  H     1 RES1    0.0000
   105  H    -7.5566     9.3539     1.0993  H     1 RES1    0.0000
   106  H    -6.7092     9.9630    -0.3426  H     1 RES1    0.0000
   107  H    -8.5578     8.5221    -1.0496  H     1 RES1    0.0000
   108  H    -7.0157     7.7114    -1.4144  H     1 RES1    0.0000
   109  H    -9.6786     6.3492    -0.9588  H     1 RES1    0.0000
   110  H    -8.1365     5.5385    -1.3235  H     1 RES1    0.0000
   111  H    -8.2340     4.3699     0.8612  H     1 RES1    0.0000
   112  H    -9.7760     5.1805     1.2260  H     1 RES1    0.0000
   113  H   -10.8026     4.1258    -0.7696  H     1 RES1    0.0000
   114  H    -9.2605     3.3151    -1.1344  H     1 RES1    0.0000
   115  H    -9.3580     2.1465     1.0504  H     1 RES1    0.0000
   116  H   -10.9001     2.9571     1.4152  H     1 RES1    0.0000
   117  H   -11.9266     1.9025    -0.5803  H     1 RES1    0.0000
   118  H   -10.3845     1.0918    -0.9452  H     1 RES1    0.0000
   119  H   -12.2473    -0.7977    -0.6113  H     1 RES1    0.0000
   120  H   -13.6551    -4.4218     3.7090  H     1 RES1    0.0000
   121  H   -13.5397    -2.0635     4.4149  H     1 RES1    0.0000
   122  H   -12.8010    -0.3308     2.8472  H     1 RES1    0.0000
   123  H   -12.1798    -5.5819    -2.2766  H     1 RES1    0.0000
   124  H   -14.2607    -8.7713    -1.7375  H     1 RES1    0.0000
   125  H   -10.1718    -8.7144    -1.7499  H     1 RES1    0.0000
   126  H   -10.8150    -7.6230    -3.0019  H     1 RES1    0.0000
   127  H   -10.1940    -6.3050    -1.0256  H     1 RES1    0.0000
   128  H   -11.1986    -7.3472     0.0159  H     1 RES1    0.0000
   129  H    11.6152     3.0817    -1.5615  H     1 RES1    0.0000
   130  H    11.8605     1.5030    -2.3462  H     1 RES1    0.0000
   131  H    10.9488     2.7814    -3.1845  H     1 RES1    0.0000
@<TRIPOS>BOND
     1      1      2      1
     2      1      6      1
     3      1     71      1
     4      2      3      1
     5      2     72      1
     6      3      4      1
     7      3     73      1
     8      4      5      1
     9      4     28      1
    10      5      6      1
    11      5      7      1
    12      6     27      1
    13      7      8      1
    14      7     74      1
    15      8      9      1
    16      8     29      2
    17      9     10      1
    18      9     13      1
    19     10     11      1
    20     11     12      2
    21     11     14      1
    22     12     13      1
    23     13     75      1
    24     14     15      1
    25     14     76      1
    26     15     16      1
    27     15     20      1
    28     16     17      1
    29     16     77      1
    30     17     18      1
    31     17     21      1
    32     18     19      1
    33     19     20      1
    34     19     70      1
    35     21     22      1
    36     21     26      1
    37     22     23      1
    38     22     78      1
    39     22     79      1
    40     23     24      1
    41     23     80      1
    42     23     81      1
    43     24     25      1
    44     24     30      1
    45     25     26      1
    46     25     82      1
    47     25     83      1
    48     26     84      1
    49     26     85      1
    50     28     86      1
    51     28     87      1
    52     28     88      1
    53     30     31      1
    54     30     89      1
    55     30     90      1
    56     31     32      1
    57     31     91      1
    58     31     92      1
    59     32     33      1
    60     32     93      1
    61     32     94      1
    62     33     34      1
    63     33     95      1
    64     33     96      1
    65     34     35      1
    66     34     97      1
    67     34     98      1
    68     35     36      1
    69     35     99      1
    70     35    100      1
    71     36     37      1
    72     37     38      1
    73     37    101      1
    74     37    102      1
    75     38     39      1
    76     38    103      1
    77     38    104      1
    78     39     40      1
    79     40     41      1
    80     40    105      1
    81     40    106      1
    82     41     42      1
    83     41    107      1
    84     41    108      1
    85     42     43      1
    86     43     44      1
    87     43    109      1
    88     43    110      1
    89     44     45      1
    90     44    111      1
    91     44    112      1
    92     45     46      1
    93     45    113      1
    94     45    114      1
    95     46     47      1
    96     46    115      1
    97     46    116      1
    98     47     48      1
    99     47    117      1
   100     47    118      1
   101     48     49      1
   102     48     50      2
   103     49     51      1
   104     49    119      1
   105     51     54      1
   106     51     56      1
   107     52     53      1
   108     52     55      1
   109     52    120      1
   110     53     54      1
   111     53    121      1
   112     54    122      1
   113     55     56      1
   114     55     59      1
   115     56     57      1
   116     57     58      1
   117     57     66      2
   118     58     59      1
   119     58     60      1
   120     59     67      2
   121     60     61      1
   122     60     65      1
   123     60    123      1
   124     61     62      1
   125     61     69      2
   126     62     63      1
   127     62    124      1
   128     63     64      1
   129     63     68      2
   130     64     65      1
   131     64    125      1
   132     64    126      1
   133     65    127      1
   134     65    128      1
   135     70    129      1
   136     70    130      1
   137     70    131      1
@<TRIPOS>SUBSTRUCTURE
      1 RES1       1
